resultados/auditoria/CN15/CN15_EXP_VOLTAGES.CSV
Bus, BasekV, Node1, Magnitude1, Angle1, pu1, Node2, Magnitude2, Angle2, pu2, Node3, Magnitude3, Angle3, pu3
"CN_ALCN15", 13.8, 1,    7964.63,    0.0,   0.99965, 2,    7964.63, -120.0,   0.99965, 3,    7964.63,  120.0,   0.99965
"SCN_CN15_9153_CEI109", 13.8, 1,    7793.41,   -0.4,   0.97816, 2,    7793.39, -120.4,   0.97816, 3,    7793.39,  119.6,   0.97816
"SCN_CN15_9154_CEI109", 13.8, 1,    7793.41,   -0.4,   0.97816, 2,    7793.39, -120.4,   0.97816, 3,    7793.39,  119.6,   0.97816
"SCN_CN15_9098_CEI131_ATV", 13.8, 1,    7800.77,   -0.4,   0.97908, 2,    7800.75, -120.4,   0.97908, 3,    7800.75,  119.6,   0.97908
"SCN_CN15_9097_CEI131_ATV", 13.8, 1,    7800.77,   -0.4,   0.97908, 2,    7800.75, -120.4,   0.97908, 3,    7800.75,  119.6,   0.97908
"SCN_CN15_9079_CEI201_ATV", 13.8, 1,    7809.04,   -0.3,   0.98012, 2,    7809.02, -120.3,   0.98012, 3,    7809.02,  119.7,   0.98012
"SCN_CN15_9080_CEI201_ATV", 13.8, 1,    7809.04,   -0.3,   0.98012, 2,    7809.02, -120.3,   0.98012, 3,    7809.02,  119.7,   0.98012
"SCN_CN15_9356_CEI109", 13.8, 1,    7790.98,   -0.4,   0.97785, 2,    7790.96, -120.4,   0.97785, 3,    7790.96,  119.6,   0.97785
"SCN_CN15_9349_CEI109", 13.8, 1,    7791.02,   -0.4,   0.97786, 2,       7791, -120.4,   0.97786, 3,       7791,  119.6,   0.97786
"SCN_CN15_9039_CEI201_ATV", 13.8, 1,    7791.05,   -0.4,   0.97786, 2,    7791.02, -120.4,   0.97786, 3,    7791.02,  119.6,   0.97786
"SCN_CN15_9021_CEI201_ATV", 13.8, 1,    7790.66,   -0.4,   0.97781, 2,    7790.64, -120.4,   0.97781, 3,    7790.64,  119.6,   0.97781
"SCN_CN15_9022_CEI201_ATV", 13.8, 1,    7790.68,   -0.4,   0.97782, 2,    7790.66, -120.4,   0.97781, 3,    7790.66,  119.6,   0.97781
"SCN_CN15_9274_CEI109", 13.8, 1,    7796.97,   -0.4,   0.97861, 2,    7796.95, -120.4,    0.9786, 3,    7796.95,  119.6,    0.9786
"SCN_CN15_9275_CEI109", 13.8, 1,    7796.85,   -0.4,   0.97859, 2,    7796.83, -120.4,   0.97859, 3,    7796.83,  119.6,   0.97859
"SCN_CN15_9269_CEI109", 13.8, 1,    7797.09,   -0.4,   0.97862, 2,    7797.07, -120.4,   0.97862, 3,    7797.07,  119.6,   0.97862
"SCN_CN15_9053_CEI201_ATV", 13.8, 1,    7791.23,   -0.4,   0.97788, 2,    7791.21, -120.4,   0.97788, 3,    7791.21,  119.6,   0.97788
"SCN_CN15_9485_CEI109", 13.8, 1,    7791.23,   -0.4,   0.97789, 2,    7791.21, -120.4,   0.97788, 3,    7791.21,  119.6,   0.97788
"SCN_CN15_421165_CEI", 13.8, 1,     7810.1,   -0.3,   0.98025, 2,    7810.08, -120.3,   0.98025, 3,    7810.08,  119.7,   0.98025
"SCN_CN15_421166_CEI", 13.8, 1,    7810.16,   -0.3,   0.98026, 2,    7810.14, -120.3,   0.98026, 3,    7810.14,  119.7,   0.98026
"SCN_CN15_9143_CEI69B", 13.8, 1,    7810.21,   -0.3,   0.98027, 2,    7810.19, -120.3,   0.98026, 3,    7810.19,  119.7,   0.98026
"SCN_CN15_9141_CEI201_ATV", 13.8, 1,     7810.1,   -0.3,   0.98025, 2,    7810.08, -120.3,   0.98025, 3,    7810.08,  119.7,   0.98025
"SCN_CN15_9129_CEI201_ATV", 13.8, 1,    7810.64,   -0.3,   0.98032, 2,    7810.62, -120.3,   0.98032, 3,    7810.62,  119.7,   0.98032
"SCN_CN15_9008_CEI220_ATV", 13.8, 1,    7810.64,   -0.3,   0.98032, 2,    7810.62, -120.3,   0.98032, 3,    7810.62,  119.7,   0.98032
"SCN_CN15_421168_CEI", 13.8, 1,    7800.13,   -0.4,     0.979, 2,    7800.11, -120.4,     0.979, 3,    7800.11,  119.6,     0.979
"SCN_CN15_9015_CEI109", 13.8, 1,    7800.13,   -0.4,     0.979, 2,    7800.11, -120.4,     0.979, 3,    7800.11,  119.6,     0.979
"SCN_CN15_421185_CEI", 13.8, 1,     7803.1,   -0.4,   0.97937, 2,    7803.08, -120.4,   0.97937, 3,    7803.08,  119.6,   0.97937
"SCN_CN15_9162_CEI220_ATV_S", 13.8, 1,    7802.94,   -0.4,   0.97935, 2,    7802.92, -120.4,   0.97935, 3,    7802.92,  119.6,   0.97935
"SCN_CN15_421186_CEI", 13.8, 1,    7803.21,   -0.4,   0.97939, 2,    7803.19, -120.4,   0.97939, 3,    7803.19,  119.6,   0.97939
"SCN_CN15_421187_CEI", 13.8, 1,    7803.35,   -0.4,   0.97941, 2,    7803.33, -120.4,    0.9794, 3,    7803.33,  119.6,    0.9794
"SCN_CN15_421169_CEI", 13.8, 1,    7803.54,   -0.4,   0.97943, 2,    7803.52, -120.4,   0.97943, 3,    7803.52,  119.6,   0.97943
"SCN_CN15_9012_CEI120", 13.8, 1,    7803.43,   -0.4,   0.97942, 2,    7803.41, -120.4,   0.97941, 3,    7803.41,  119.6,   0.97941
"SCN_CN15_421170_CEI", 13.8, 1,    7804.43,   -0.4,   0.97954, 2,    7804.41, -120.4,   0.97954, 3,    7804.41,  119.6,   0.97954
"SCN_CN15_421171_CEI", 13.8, 1,    7804.43,   -0.4,   0.97954, 2,    7804.41, -120.4,   0.97954, 3,    7804.41,  119.6,   0.97954
"SCN_CN15_421172_CEI", 13.8, 1,    7804.43,   -0.4,   0.97954, 2,    7804.41, -120.4,   0.97954, 3,    7804.41,  119.6,   0.97954
"SCN_CN15_421173_CEI", 13.8, 1,    7804.43,   -0.4,   0.97954, 2,    7804.41, -120.4,   0.97954, 3,    7804.41,  119.6,   0.97954
"SCN_CN15_421174_CEI", 13.8, 1,    7804.43,   -0.4,   0.97954, 2,    7804.41, -120.4,   0.97954, 3,    7804.41,  119.6,   0.97954
"SCN_CN15_421175_CEI", 13.8, 1,    7805.21,   -0.4,   0.97964, 2,    7805.19, -120.4,   0.97964, 3,    7805.19,  119.6,   0.97964
"SCN_CN15_421176_CEI", 13.8, 1,    7805.21,   -0.4,   0.97964, 2,    7805.19, -120.4,   0.97964, 3,    7805.19,  119.6,   0.97964
"SCN_CN15_421177_CEI", 13.8, 1,    7805.21,   -0.4,   0.97964, 2,    7805.19, -120.4,   0.97964, 3,    7805.19,  119.6,   0.97964
"SCN_CN15_421178_CEI", 13.8, 1,    7805.21,   -0.4,   0.97964, 2,    7805.19, -120.4,   0.97964, 3,    7805.19,  119.6,   0.97964
"SCN_CN15_421179_CEI", 13.8, 1,    7806.86,   -0.3,   0.97985, 2,    7806.84, -120.3,   0.97984, 3,    7806.84,  119.7,   0.97984
"SCN_CN15_9047_CEI130_ATV", 13.8, 1,    7809.16,   -0.3,   0.98013, 2,    7809.14, -120.3,   0.98013, 3,    7809.14,  119.7,   0.98013
"SCN_CN15_421180_CEI", 13.8, 1,    7809.16,   -0.3,   0.98013, 2,    7809.14, -120.3,   0.98013, 3,    7809.14,  119.7,   0.98013
"SCN_CN15_9037_CEI130_ATV", 13.8, 1,    7813.11,   -0.3,   0.98063, 2,    7813.08, -120.3,   0.98063, 3,    7813.09,  119.7,   0.98063
"SCN_CN15_9047_CEI130_ATV_S", 13.8, 1,    7809.16,   -0.3,   0.98013, 2,    7809.14, -120.3,   0.98013, 3,    7809.14,  119.7,   0.98013
"SCN_CN15_421181_CEI", 13.8, 1,    7813.94,   -0.3,   0.98074, 2,    7813.92, -120.3,   0.98073, 3,    7813.93,  119.7,   0.98073
"SCN_CN15_9040_CEI130_ATV", 13.8, 1,    7813.94,   -0.3,   0.98074, 2,    7813.92, -120.3,   0.98073, 3,    7813.93,  119.7,   0.98073
"SCN_CN15_421182_CEI", 13.8, 1,    7813.94,   -0.3,   0.98074, 2,    7813.92, -120.3,   0.98073, 3,    7813.93,  119.7,   0.98073
"SCN_CN15_421183_CEI", 13.8, 1,    7813.94,   -0.3,   0.98074, 2,    7813.92, -120.3,   0.98073, 3,    7813.93,  119.7,   0.98073
"SCN_CN15_421184_CEI", 13.8, 1,    7813.94,   -0.3,   0.98074, 2,    7813.92, -120.3,   0.98073, 3,    7813.93,  119.7,   0.98073
"SCN_CN15_421195_CEI", 13.8, 1,    7817.77,   -0.3,   0.98122, 2,    7817.75, -120.3,   0.98121, 3,    7817.75,  119.7,   0.98121
"SCN_CN15_9022_CEI250_ATV", 13.8, 1,    7817.61,   -0.3,   0.98119, 2,    7817.59, -120.3,   0.98119, 3,    7817.59,  119.7,   0.98119
"SCN_CN15_421196_CEI", 13.8, 1,       7818,   -0.3,   0.98124, 2,    7817.98, -120.3,   0.98124, 3,    7817.98,  119.7,   0.98124
"SCN_CN15_9025_CEI130_ATV", 13.8, 1,    7818.19,   -0.3,   0.98127, 2,    7818.17, -120.3,   0.98127, 3,    7818.17,  119.7,   0.98127
"SCN_CN15_421197_CEI", 13.8, 1,    7809.13,   -0.3,   0.98013, 2,    7809.11, -120.3,   0.98013, 3,    7809.11,  119.7,   0.98013
"SCN_CN15_9004_CEI160_ATV", 13.8, 1,    7809.13,   -0.3,   0.98013, 2,    7809.11, -120.3,   0.98013, 3,    7809.11,  119.7,   0.98013
"SCN_CN15_9005_CEI160_ATV", 13.8, 1,    7809.13,   -0.3,   0.98013, 2,    7809.11, -120.3,   0.98013, 3,    7809.11,  119.7,   0.98013
"SCN_CN15_9017_CEI130A_ATV", 13.8, 1,    7834.23,   -0.3,   0.98328, 2,    7834.21, -120.3,   0.98328, 3,    7834.21,  119.7,   0.98328
"SCN_CN15_421206_CEI", 13.8, 1,    7834.23,   -0.3,   0.98328, 2,    7834.21, -120.3,   0.98328, 3,    7834.21,  119.7,   0.98328
"SCN_CN15_9034_CEI130A_ATV", 13.8, 1,    7834.13,   -0.3,   0.98327, 2,    7834.11, -120.3,   0.98327, 3,    7834.11,  119.7,   0.98327
"SCN_CN15_421207_CEI", 13.8, 1,    7834.13,   -0.3,   0.98327, 2,    7834.11, -120.3,   0.98327, 3,    7834.11,  119.7,   0.98327
"SCN_CN15_421208_CEI", 13.8, 1,    7834.13,   -0.3,   0.98327, 2,    7834.11, -120.3,   0.98327, 3,    7834.11,  119.7,   0.98327
"SCN_CN15_421209_CEI", 13.8, 1,    7834.13,   -0.3,   0.98327, 2,    7834.11, -120.3,   0.98327, 3,    7834.11,  119.7,   0.98327
"SCN_CN15_421210_CEI", 13.8, 1,    7834.13,   -0.3,   0.98327, 2,    7834.11, -120.3,   0.98327, 3,    7834.11,  119.7,   0.98327
"SCN_CN15_421211_CEI", 13.8, 1,    7834.13,   -0.3,   0.98327, 2,    7834.11, -120.3,   0.98327, 3,    7834.11,  119.7,   0.98327
"SCN_CN15_421212_CEI", 13.8, 1,    7834.13,   -0.3,   0.98327, 2,    7834.11, -120.3,   0.98327, 3,    7834.11,  119.7,   0.98327
"SCN_CN15_9040_CEI130A_ATV", 13.8, 1,    7834.12,   -0.3,   0.98327, 2,     7834.1, -120.3,   0.98327, 3,    7834.11,  119.7,   0.98327
"SCN_CN15_421213_CEI", 13.8, 1,    7834.12,   -0.3,   0.98327, 2,     7834.1, -120.3,   0.98327, 3,    7834.11,  119.7,   0.98327
"SCN_CN15_421218_CEI", 13.8, 1,    7962.74,    0.0,   0.99941, 2,    7962.74, -120.0,   0.99941, 3,    7962.74,  120.0,   0.99941
"SCN_CN15_9353_CEI065", 13.8, 1,    7962.02,    0.0,   0.99932, 2,    7962.02, -120.0,   0.99932, 3,    7962.02,  120.0,   0.99932
"SCN_CN15_421219_CEI", 13.8, 1,    7963.49,    0.0,    0.9995, 2,    7963.49, -120.0,    0.9995, 3,    7963.49,  120.0,    0.9995
"SCN_CN15_421227_CEI", 13.8, 1,    7799.87,   -0.3,   0.97897, 2,    7799.84, -120.3,   0.97897, 3,    7799.84,  119.7,   0.97897
"SCN_CN15_9006_CEIRJ013_ATV", 13.8, 1,    7799.87,   -0.3,   0.97897, 2,    7799.84, -120.3,   0.97897, 3,    7799.84,  119.7,   0.97897
"SCN_CN15_9067_CEIRJ006_ATV", 13.8, 1,    7800.14,   -0.3,     0.979, 2,    7800.11, -120.3,     0.979, 3,    7800.11,  119.7,     0.979
"SCN_CN15_9064_CEIRJ006_ATV", 13.8, 1,    7800.14,   -0.3,     0.979, 2,    7800.11, -120.3,     0.979, 3,    7800.11,  119.7,     0.979
"SCN_CN15_421241_CEI", 13.8, 1,    7800.14,   -0.3,     0.979, 2,    7800.11, -120.3,     0.979, 3,    7800.11,  119.7,     0.979
"SCN_CN15_9068_CEIRJ006_ATV", 13.8, 1,    7800.14,   -0.3,     0.979, 2,    7800.11, -120.3,     0.979, 3,    7800.11,  119.7,     0.979
"SCN_CN15_9050_CEI160_ATV", 13.8, 1,    7814.42,   -0.3,    0.9808, 2,     7814.4, -120.3,   0.98079, 3,     7814.4,  119.7,   0.98079
"SCN_CN15_9014_CEI077_ATV", 13.8, 1,    7814.48,   -0.3,    0.9808, 2,    7814.45, -120.3,    0.9808, 3,    7814.46,  119.7,    0.9808
"SCN_CN15_9052_CEI160_ATV", 13.8, 1,    7814.42,   -0.3,    0.9808, 2,     7814.4, -120.3,   0.98079, 3,     7814.4,  119.7,   0.98079
"SCN_CN15_421244_CEI", 13.8, 1,    7814.37,   -0.3,   0.98079, 2,    7814.35, -120.3,   0.98079, 3,    7814.35,  119.7,   0.98079
"SCN_CN15_421245_CEI", 13.8, 1,    7814.32,   -0.3,   0.98078, 2,     7814.3, -120.3,   0.98078, 3,     7814.3,  119.7,   0.98078
"SCN_CN15_9005_CEIRJ012_ATV_S", 13.8, 1,    7814.27,   -0.3,   0.98078, 2,    7814.24, -120.3,   0.98077, 3,    7814.25,  119.7,   0.98077
"SCN_CN15_9024_CEI167_ATV", 13.8, 1,    7809.46,   -0.3,   0.98017, 2,    7809.44, -120.3,   0.98017, 3,    7809.44,  119.7,   0.98017
"SCN_CN15_9025_CEI167_ATV", 13.8, 1,    7809.46,   -0.3,   0.98017, 2,    7809.44, -120.3,   0.98017, 3,    7809.44,  119.7,   0.98017
"SCN_CN15_9002_CEIRJ013_ATV", 13.8, 1,    7809.46,   -0.3,   0.98017, 2,    7809.44, -120.3,   0.98017, 3,    7809.44,  119.7,   0.98017
"SCN_CN15_9037_CEI77A_ATV", 13.8, 1,    7810.57,   -0.3,   0.98031, 2,    7810.54, -120.3,   0.98031, 3,    7810.55,  119.7,   0.98031
"SCN_CN15_9035_CEIRJ006_ATV", 13.8, 1,    7810.57,   -0.3,   0.98031, 2,    7810.54, -120.3,   0.98031, 3,    7810.55,  119.7,   0.98031
"SCN_CN15_9036_CEIRJ006_ATV", 13.8, 1,    7810.57,   -0.3,   0.98031, 2,    7810.54, -120.3,   0.98031, 3,    7810.55,  119.7,   0.98031
"SCN_CN15_9105_CEI201_ATV", 13.8, 1,    7808.97,   -0.3,   0.98011, 2,    7808.94, -120.3,   0.98011, 3,    7808.94,  119.7,   0.98011
"SCN_CN15_9102_CEI201_ATV_S", 13.8, 1,    7808.96,   -0.3,   0.98011, 2,    7808.94, -120.3,   0.98011, 3,    7808.94,  119.7,   0.98011
"SCN_CN15_9017_CEI201_ATV", 13.8, 1,    7790.61,   -0.4,   0.97781, 2,    7790.58, -120.4,    0.9778, 3,    7790.59,  119.6,    0.9778
"SCN_CN15_9019_CEI201_ATV", 13.8, 1,    7790.62,   -0.4,   0.97781, 2,     7790.6, -120.4,   0.97781, 3,     7790.6,  119.6,   0.97781
"SCN_CN15_9019_CEI134C_ATV", 13.8, 1,    7796.38,   -0.4,   0.97853, 2,    7796.36, -120.4,   0.97853, 3,    7796.35,  119.6,   0.97853
"SCN_CN15_9020_CEI134C_ATV", 13.8, 1,    7796.38,   -0.4,   0.97853, 2,    7796.35, -120.4,   0.97853, 3,    7796.35,  119.6,   0.97853
"SCN_CN15_9022_CEI134C_ATV", 13.8, 1,    7796.36,   -0.4,   0.97853, 2,    7796.34, -120.4,   0.97853, 3,    7796.34,  119.6,   0.97853
"SCN_CN15_9021_CEI134C_ATV", 13.8, 1,    7796.35,   -0.4,   0.97853, 2,    7796.33, -120.4,   0.97852, 3,    7796.33,  119.6,   0.97852
"SCN_CN15_9023_CEI134C_ATV", 13.8, 1,    7796.35,   -0.4,   0.97853, 2,    7796.33, -120.4,   0.97852, 3,    7796.33,  119.6,   0.97852
"SCN_CN15_9034_CEI134C_ATV", 13.8, 1,    7796.35,   -0.4,   0.97853, 2,    7796.32, -120.4,   0.97852, 3,    7796.32,  119.6,   0.97852
"SCN_CN15_9035_CEI134C_ATV", 13.8, 1,    7796.34,   -0.4,   0.97853, 2,    7796.32, -120.4,   0.97852, 3,    7796.32,  119.6,   0.97852
"SCN_CN15_9036_CEI134C_ATV", 13.8, 1,    7796.34,   -0.4,   0.97853, 2,    7796.32, -120.4,   0.97852, 3,    7796.32,  119.6,   0.97852
"SCN_CN15_9024_CEI134B_ATV", 13.8, 1,    7796.67,   -0.4,   0.97857, 2,    7796.65, -120.4,   0.97856, 3,    7796.65,  119.6,   0.97856
"SCN_CN15_9027_CEI134B_ATV", 13.8, 1,    7796.67,   -0.4,   0.97857, 2,    7796.65, -120.4,   0.97856, 3,    7796.65,  119.6,   0.97856
"SCN_CN15_9026_CEI134B_ATV", 13.8, 1,    7796.67,   -0.4,   0.97857, 2,    7796.65, -120.4,   0.97856, 3,    7796.65,  119.6,   0.97856
"SCN_CN15_9028_CEI134B_ATV", 13.8, 1,    7796.67,   -0.4,   0.97857, 2,    7796.65, -120.4,   0.97856, 3,    7796.65,  119.6,   0.97856
"SCN_CN15_9011_CEI134_ATV", 13.8, 1,    7798.15,   -0.4,   0.97875, 2,    7798.13, -120.4,   0.97875, 3,    7798.13,  119.6,   0.97875
"SCN_CN15_9009_CEI134A_ATV", 13.8, 1,    7798.09,   -0.4,   0.97875, 2,    7798.06, -120.4,   0.97874, 3,    7798.06,  119.6,   0.97874
"SCN_CN15_9002_CEI134_ATV", 13.8, 1,    7798.32,   -0.4,   0.97877, 2,    7798.29, -120.4,   0.97877, 3,    7798.29,  119.6,   0.97877
"SCN_CN15_9003_CEI134_ATV", 13.8, 1,    7798.32,   -0.4,   0.97877, 2,     7798.3, -120.4,   0.97877, 3,     7798.3,  119.6,   0.97877
"SCN_CN15_9101_CEI109", 13.8, 1,    7798.55,   -0.4,    0.9788, 2,    7798.53, -120.4,    0.9788, 3,    7798.53,  119.6,    0.9788
"SCN_CN15_9102_CEI109", 13.8, 1,    7798.55,   -0.4,    0.9788, 2,    7798.53, -120.4,    0.9788, 3,    7798.53,  119.6,    0.9788
"SCN_CN15_9103_CEI109", 13.8, 1,    7798.55,   -0.4,    0.9788, 2,    7798.52, -120.4,    0.9788, 3,    7798.52,  119.6,    0.9788
"SCN_CN15_9104_CEI109", 13.8, 1,    7798.54,   -0.4,    0.9788, 2,    7798.52, -120.4,    0.9788, 3,    7798.52,  119.6,    0.9788
"SCN_CN15_9105_CEI109", 13.8, 1,    7798.54,   -0.4,    0.9788, 2,    7798.52, -120.4,    0.9788, 3,    7798.52,  119.6,    0.9788
"SCN_CN15_9106_CEI109", 13.8, 1,    7798.54,   -0.4,    0.9788, 2,    7798.52, -120.4,    0.9788, 3,    7798.52,  119.6,    0.9788
"SCN_CN15_9108_CEI109", 13.8, 1,    7798.54,   -0.4,    0.9788, 2,    7798.51, -120.4,    0.9788, 3,    7798.51,  119.6,    0.9788
"SCN_CN15_9109_CEI109", 13.8, 1,    7798.53,   -0.4,    0.9788, 2,    7798.51, -120.4,    0.9788, 3,    7798.51,  119.6,    0.9788
"SCN_CN15_9110_CEI109", 13.8, 1,    7798.53,   -0.4,    0.9788, 2,    7798.51, -120.4,    0.9788, 3,    7798.51,  119.6,    0.9788
"SCN_CN15_9111_CEI109", 13.8, 1,    7798.53,   -0.4,    0.9788, 2,     7798.5, -120.4,    0.9788, 3,    7798.51,  119.6,    0.9788
"SCN_CN15_9112_CEI109", 13.8, 1,    7798.53,   -0.4,    0.9788, 2,     7798.5, -120.4,    0.9788, 3,     7798.5,  119.6,    0.9788
"SCN_CN15_9113_CEI109", 13.8, 1,    7798.52,   -0.4,    0.9788, 2,     7798.5, -120.4,    0.9788, 3,     7798.5,  119.6,    0.9788
"SCN_CN15_9114_CEI109", 13.8, 1,    7798.52,   -0.4,    0.9788, 2,     7798.5, -120.4,    0.9788, 3,     7798.5,  119.6,    0.9788
"SCN_CN15_9115_CEI109", 13.8, 1,    7798.52,   -0.4,    0.9788, 2,    7798.49, -120.4,    0.9788, 3,     7798.5,  119.6,    0.9788
"SCN_CN15_9116_CEI109", 13.8, 1,    7798.51,   -0.4,    0.9788, 2,    7798.49, -120.4,    0.9788, 3,    7798.49,  119.6,    0.9788
"SCN_CN15_9010_CEI120", 13.8, 1,    7803.23,   -0.4,   0.97939, 2,     7803.2, -120.4,   0.97939, 3,     7803.2,  119.6,   0.97939
"SCN_CN15_9011_CEI120", 13.8, 1,    7803.39,   -0.4,   0.97941, 2,    7803.37, -120.4,   0.97941, 3,    7803.37,  119.6,   0.97941
"SCN_CN15_9045_CEI130_ATV", 13.8, 1,    7809.15,   -0.3,   0.98013, 2,    7809.13, -120.3,   0.98013, 3,    7809.13,  119.7,   0.98013
"SCN_CN15_9044_CEI130_ATV", 13.8, 1,    7809.15,   -0.3,   0.98013, 2,    7809.13, -120.3,   0.98013, 3,    7809.13,  119.7,   0.98013
"SCN_CN15_9043_CEI130_ATV", 13.8, 1,    7809.14,   -0.3,   0.98013, 2,    7809.12, -120.3,   0.98013, 3,    7809.12,  119.7,   0.98013
"SCN_CN15_9014_CEI69B", 13.8, 1,    7819.42,   -0.3,   0.98142, 2,     7819.4, -120.3,   0.98142, 3,     7819.4,  119.7,   0.98142
"SCN_CN15_9015_CEI69B", 13.8, 1,    7819.48,   -0.3,   0.98143, 2,    7819.46, -120.3,   0.98143, 3,    7819.46,  119.7,   0.98143
"SCN_CN15_9559_CEI109", 13.8, 1,    7797.73,   -0.4,    0.9787, 2,    7797.71, -120.4,    0.9787, 3,    7797.71,  119.6,    0.9787
"SCN_CN15_9570_CEI109", 13.8, 1,    7797.73,   -0.4,    0.9787, 2,    7797.71, -120.4,    0.9787, 3,    7797.71,  119.6,    0.9787
"SCN_CN15_9558_CEI109", 13.8, 1,    7798.18,   -0.4,   0.97876, 2,    7798.16, -120.4,   0.97875, 3,    7798.16,  119.6,   0.97875
"SCN_CN15_9560_CEI109", 13.8, 1,    7797.41,   -0.4,   0.97866, 2,    7797.38, -120.4,   0.97866, 3,    7797.39,  119.6,   0.97866
"SCN_CN15_9555_CEI109", 13.8, 1,    7798.69,   -0.4,   0.97882, 2,    7798.67, -120.4,   0.97882, 3,    7798.67,  119.6,   0.97882
"SCN_CN15_9552_CEI109", 13.8, 1,    7799.07,   -0.4,   0.97887, 2,    7799.04, -120.4,   0.97887, 3,    7799.05,  119.6,   0.97887
"SCN_CN15_9550_CEI109", 13.8, 1,     7799.4,   -0.4,   0.97891, 2,    7799.37, -120.4,   0.97891, 3,    7799.37,  119.6,   0.97891
"SCN_CN15_9548_CEI109", 13.8, 1,    7799.71,   -0.4,   0.97895, 2,    7799.69, -120.4,   0.97895, 3,    7799.69,  119.6,   0.97895
"SCN_CN15_9017_CEI109", 13.8, 1,    7800.14,   -0.4,     0.979, 2,    7800.12, -120.4,     0.979, 3,    7800.12,  119.6,     0.979
"SCN_CN15_9548_CEI109_S", 13.8, 1,    7799.71,   -0.4,   0.97895, 2,    7799.69, -120.4,   0.97895, 3,    7799.69,  119.6,   0.97895
"SCN_CN15_9016_CEI109", 13.8, 1,    7800.13,   -0.4,     0.979, 2,    7800.11, -120.4,     0.979, 3,    7800.11,  119.6,     0.979
"SCN_CN15_9014_CEI109", 13.8, 1,    7800.12,   -0.4,     0.979, 2,     7800.1, -120.4,     0.979, 3,     7800.1,  119.6,     0.979
"SCN_CN15_9013_CEI109", 13.8, 1,    7800.11,   -0.4,     0.979, 2,    7800.09, -120.4,     0.979, 3,    7800.09,  119.6,     0.979
"SCN_CN15_9012_CEI109", 13.8, 1,     7800.1,   -0.4,     0.979, 2,    7800.08, -120.4,     0.979, 3,    7800.08,  119.6,     0.979
"SCN_CN15_9008_CEI109", 13.8, 1,     7800.1,   -0.4,     0.979, 2,    7800.08, -120.4,   0.97899, 3,    7800.08,  119.6,   0.97899
"SCN_CN15_9009_CEI109", 13.8, 1,    7800.09,   -0.4,     0.979, 2,    7800.07, -120.4,   0.97899, 3,    7800.07,  119.6,   0.97899
"SCN_CN15_9010_CEI109", 13.8, 1,    7800.09,   -0.4,     0.979, 2,    7800.07, -120.4,   0.97899, 3,    7800.07,  119.6,   0.97899
"SCN_CN15_9011_CEI109", 13.8, 1,    7800.09,   -0.4,     0.979, 2,    7800.07, -120.4,   0.97899, 3,    7800.07,  119.6,   0.97899
"SCN_CN15_9547_CEI109", 13.8, 1,    7799.71,   -0.4,   0.97895, 2,    7799.68, -120.4,   0.97895, 3,    7799.68,  119.6,   0.97895
"SCN_CN15_9007_CEI109", 13.8, 1,    7800.09,   -0.4,     0.979, 2,    7800.07, -120.4,   0.97899, 3,    7800.07,  119.6,   0.97899
"SCN_CN15_9006_CEI109", 13.8, 1,    7800.09,   -0.4,     0.979, 2,    7800.07, -120.4,   0.97899, 3,    7800.07,  119.6,   0.97899
"SCN_CN15_9005_CEI109", 13.8, 1,    7800.09,   -0.4,     0.979, 2,    7800.07, -120.4,   0.97899, 3,    7800.07,  119.6,   0.97899
"SCN_CN15_9004_CEI109", 13.8, 1,    7800.09,   -0.4,     0.979, 2,    7800.07, -120.4,   0.97899, 3,    7800.07,  119.6,   0.97899
"SCN_CN15_9002_CEI109", 13.8, 1,    7810.68,   -0.3,   0.98033, 2,    7810.66, -120.3,   0.98032, 3,    7810.66,  119.7,   0.98032
"SCN_CN15_9003_CEI109", 13.8, 1,    7810.68,   -0.3,   0.98033, 2,    7810.66, -120.3,   0.98032, 3,    7810.66,  119.7,   0.98032
"SCN_CN15_9001_CEI109", 13.8, 1,    7810.68,   -0.3,   0.98033, 2,    7810.66, -120.3,   0.98032, 3,    7810.66,  119.7,   0.98032
"SCN_CN15_9122_CEI201_ATV", 13.8, 1,    7810.68,   -0.3,   0.98033, 2,    7810.66, -120.3,   0.98032, 3,    7810.66,  119.7,   0.98032
"SCN_CN15_9241_CEI109", 13.8, 1,    7793.56,   -0.4,   0.97818, 2,    7793.53, -120.4,   0.97817, 3,    7793.53,  119.6,   0.97817
"SCN_CN15_9204_CEI109", 13.8, 1,    7793.56,   -0.4,   0.97818, 2,    7793.53, -120.4,   0.97817, 3,    7793.53,  119.6,   0.97817
"SCN_CN15_9242_CEI109", 13.8, 1,    7793.56,   -0.4,   0.97818, 2,    7793.53, -120.4,   0.97817, 3,    7793.53,  119.6,   0.97817
"SCN_CN15_9243_CEI109", 13.8, 1,    7793.55,   -0.4,   0.97818, 2,    7793.53, -120.4,   0.97817, 3,    7793.53,  119.6,   0.97817
"SCN_CN15_9244_CEI109", 13.8, 1,    7793.55,   -0.4,   0.97818, 2,    7793.53, -120.4,   0.97817, 3,    7793.53,  119.6,   0.97817
"SCN_CN15_9245_CEI109", 13.8, 1,    7793.55,   -0.4,   0.97818, 2,    7793.53, -120.4,   0.97817, 3,    7793.53,  119.6,   0.97817
"SCN_CN15_9190_CEI109", 13.8, 1,    7793.46,   -0.4,   0.97816, 2,    7793.44, -120.4,   0.97816, 3,    7793.44,  119.6,   0.97816
"SCN_CN15_9191_CEI109", 13.8, 1,    7793.46,   -0.4,   0.97816, 2,    7793.44, -120.4,   0.97816, 3,    7793.44,  119.6,   0.97816
"SCN_CN15_9166_CEI109", 13.8, 1,    7793.46,   -0.4,   0.97816, 2,    7793.44, -120.4,   0.97816, 3,    7793.44,  119.6,   0.97816
"SCN_CN15_9167_CEI109", 13.8, 1,    7793.46,   -0.4,   0.97816, 2,    7793.44, -120.4,   0.97816, 3,    7793.44,  119.6,   0.97816
"SCN_CN15_9168_CEI109", 13.8, 1,    7793.46,   -0.4,   0.97816, 2,    7793.43, -120.4,   0.97816, 3,    7793.43,  119.6,   0.97816
"SCN_CN15_9169_CEI109", 13.8, 1,    7793.46,   -0.4,   0.97816, 2,    7793.43, -120.4,   0.97816, 3,    7793.43,  119.6,   0.97816
"SCN_CN15_9183_CEI109", 13.8, 1,    7793.46,   -0.4,   0.97816, 2,    7793.43, -120.4,   0.97816, 3,    7793.43,  119.6,   0.97816
"SCN_CN15_9330_CEI109", 13.8, 1,     7791.2,   -0.4,   0.97788, 2,    7791.18, -120.4,   0.97788, 3,    7791.18,  119.6,   0.97788
"SCN_CN15_9329_CEI109", 13.8, 1,    7791.24,   -0.4,   0.97789, 2,    7791.22, -120.4,   0.97788, 3,    7791.22,  119.6,   0.97788
"SCN_CN15_9328_CEI109", 13.8, 1,    7791.27,   -0.4,   0.97789, 2,    7791.25, -120.4,   0.97789, 3,    7791.25,  119.6,   0.97789
"SCN_CN15_9165_CEI068", 13.8, 1,    7825.19,   -0.3,   0.98215, 2,    7825.17, -120.3,   0.98214, 3,    7825.17,  119.7,   0.98214
"SCN_CN15_9166_CEI068", 13.8, 1,    7825.18,   -0.3,   0.98215, 2,    7825.17, -120.3,   0.98214, 3,    7825.17,  119.7,   0.98214
"SCN_CN15_9327_CEI109", 13.8, 1,    7791.33,   -0.4,    0.9779, 2,     7791.3, -120.4,   0.97789, 3,     7791.3,  119.6,   0.97789
"SCN_CN15_9399_CEI109", 13.8, 1,    7791.38,   -0.4,    0.9779, 2,    7791.35, -120.4,    0.9779, 3,    7791.35,  119.6,    0.9779
"SCN_CN15_9029_CEI160_ATV", 13.8, 1,    7791.37,   -0.4,    0.9779, 2,    7791.35, -120.4,    0.9779, 3,    7791.35,  119.6,    0.9779
"SCN_CN15_9057_CEI075", 13.8, 1,    7802.47,   -0.3,    0.9793, 2,    7802.44, -120.3,   0.97929, 3,    7802.44,  119.7,   0.97929
"SCN_CN15_9054_CEIRJ006_ATV", 13.8, 1,    7802.47,   -0.3,    0.9793, 2,    7802.44, -120.3,   0.97929, 3,    7802.44,  119.7,   0.97929
"SCN_CN15_9040_CEI77A_ATV", 13.8, 1,    7810.55,   -0.3,   0.98031, 2,    7810.53, -120.3,   0.98031, 3,    7810.54,  119.7,   0.98031
"SCN_CN15_9042_CEI77A_ATV", 13.8, 1,    7810.55,   -0.3,   0.98031, 2,    7810.53, -120.3,   0.98031, 3,    7810.53,  119.7,   0.98031
"SCN_CN15_9043_CEI77A_ATV", 13.8, 1,    7810.55,   -0.3,   0.98031, 2,    7810.53, -120.3,   0.98031, 3,    7810.53,  119.7,   0.98031
"SCN_CN15_9190_CEI77A_ATV", 13.8, 1,    7810.51,   -0.3,    0.9803, 2,    7810.49, -120.3,    0.9803, 3,    7810.49,  119.7,    0.9803
"SCN_CN15_9194_CEI77A_ATV", 13.8, 1,     7810.5,   -0.3,    0.9803, 2,    7810.48, -120.3,    0.9803, 3,    7810.49,  119.7,    0.9803
"SCN_CN15_9195_CEI77A_ATV", 13.8, 1,    7810.49,   -0.3,    0.9803, 2,    7810.47, -120.3,    0.9803, 3,    7810.48,  119.7,    0.9803
"SCN_CN15_9196_CEI77A_ATV", 13.8, 1,    7810.48,   -0.3,    0.9803, 2,    7810.46, -120.3,    0.9803, 3,    7810.47,  119.7,    0.9803
"SCN_CN15_9197_CEI77A_ATV", 13.8, 1,    7810.47,   -0.3,    0.9803, 2,    7810.45, -120.3,    0.9803, 3,    7810.46,  119.7,    0.9803
"SCN_CN15_9198_CEI77A_ATV", 13.8, 1,    7810.47,   -0.3,    0.9803, 2,    7810.45, -120.3,    0.9803, 3,    7810.45,  119.7,    0.9803
"SCN_CN15_9199_CEI77A_ATV", 13.8, 1,    7810.47,   -0.3,    0.9803, 2,    7810.45, -120.3,    0.9803, 3,    7810.45,  119.7,    0.9803
"SCN_CN15_9200_CEI77A_ATV", 13.8, 1,    7810.68,   -0.3,   0.98033, 2,    7810.66, -120.3,   0.98032, 3,    7810.66,  119.7,   0.98032
"SCN_CN15_9201_CEI77A_ATV", 13.8, 1,    7810.68,   -0.3,   0.98033, 2,    7810.66, -120.3,   0.98032, 3,    7810.66,  119.7,   0.98032
"SCN_CN15_9039_CEI076", 13.8, 1,    7834.23,   -0.3,   0.98328, 2,    7834.21, -120.3,   0.98328, 3,    7834.21,  119.7,   0.98328
"SCN_CN15_9041_CEI076", 13.8, 1,    7834.23,   -0.3,   0.98328, 2,    7834.21, -120.3,   0.98328, 3,    7834.21,  119.7,   0.98328
"SCN_CN15_9042_CEI076", 13.8, 1,    7834.23,   -0.3,   0.98328, 2,    7834.21, -120.3,   0.98328, 3,    7834.21,  119.7,   0.98328
"SCN_CN15_9044_CEI076", 13.8, 1,    7834.23,   -0.3,   0.98328, 2,    7834.21, -120.3,   0.98328, 3,    7834.21,  119.7,   0.98328
"SCN_CN15_9045_CEI076", 13.8, 1,    7834.23,   -0.3,   0.98328, 2,    7834.21, -120.3,   0.98328, 3,    7834.21,  119.7,   0.98328
"SCN_CN15_9057_CEI068", 13.8, 1,    7885.92,   -0.2,   0.98977, 2,    7885.91, -120.2,   0.98977, 3,    7885.91,  119.8,   0.98977
"SCN_CN15_9058_CEI068", 13.8, 1,    7885.92,   -0.2,   0.98977, 2,    7885.91, -120.2,   0.98977, 3,    7885.91,  119.8,   0.98977
"SCN_CN15_9236_CEI068", 13.8, 1,    7885.92,   -0.2,   0.98977, 2,    7885.91, -120.2,   0.98977, 3,    7885.91,  119.8,   0.98977
...
"SCN_CN15_CEI_FL_MT_37442", 13.8, 1,     7818.7,   -0.3,   0.98133, 2,    7818.68, -120.3,   0.98133, 3,    7818.68,  119.7,   0.98133
"SCN_CN15_9088_CEI072", 13.8, 1,     7818.7,   -0.3,   0.98133, 2,    7818.68, -120.3,   0.98133, 3,    7818.68,  119.7,   0.98133
"SCN_CN15_9089_CEI072", 13.8, 1,    7818.58,   -0.3,   0.98132, 2,    7818.56, -120.3,   0.98132, 3,    7818.57,  119.7,   0.98132
"SCN_CN15_9062_CEI072", 13.8, 1,    7818.84,   -0.3,   0.98135, 2,    7818.82, -120.3,   0.98135, 3,    7818.83,  119.7,   0.98135
"SCN_CN15_9061_CEI071", 13.8, 1,    7823.82,   -0.3,   0.98197, 2,     7823.8, -120.3,   0.98197, 3,     7823.8,  119.7,   0.98197
"SCN_CN15_9072_CEI071", 13.8, 1,    7823.82,   -0.3,   0.98197, 2,     7823.8, -120.3,   0.98197, 3,     7823.8,  119.7,   0.98197
"SCN_CN15_9073_CEI071", 13.8, 1,    7823.81,   -0.3,   0.98197, 2,    7823.79, -120.3,   0.98197, 3,     7823.8,  119.7,   0.98197
"SCN_CN15_9075_CEI071", 13.8, 1,    7823.81,   -0.3,   0.98197, 2,    7823.79, -120.3,   0.98197, 3,    7823.79,  119.7,   0.98197
"SCN_CN15_9078_CEI071", 13.8, 1,    7823.81,   -0.3,   0.98197, 2,    7823.79, -120.3,   0.98197, 3,    7823.79,  119.7,   0.98197
"SCN_CN15_9079_CEI071", 13.8, 1,     7823.8,   -0.3,   0.98197, 2,    7823.79, -120.3,   0.98197, 3,    7823.79,  119.7,   0.98197
"SCN_CN15_9080_CEI071", 13.8, 1,     7823.8,   -0.3,   0.98197, 2,    7823.78, -120.3,   0.98197, 3,    7823.79,  119.7,   0.98197
"SCN_CN15_9081_CEI071", 13.8, 1,     7823.8,   -0.3,   0.98197, 2,    7823.78, -120.3,   0.98197, 3,    7823.78,  119.7,   0.98197
"SCN_CN15_9082_CEI071", 13.8, 1,     7823.8,   -0.3,   0.98197, 2,    7823.78, -120.3,   0.98197, 3,    7823.78,  119.7,   0.98197
"SCN_CN15_9083_CEI071", 13.8, 1,    7823.79,   -0.3,   0.98197, 2,    7823.78, -120.3,   0.98197, 3,    7823.78,  119.7,   0.98197
"SCN_CN15_9084_CEI071", 13.8, 1,    7823.79,   -0.3,   0.98197, 2,    7823.77, -120.3,   0.98197, 3,    7823.78,  119.7,   0.98197
"SCN_CN15_9145_CEI220_ATV", 13.8, 1,     7802.7,   -0.4,   0.97932, 2,    7802.68, -120.4,   0.97932, 3,    7802.68,  119.6,   0.97932
"SCN_CN15_9146_CEI220_ATV", 13.8, 1,    7802.69,   -0.4,   0.97932, 2,    7802.67, -120.4,   0.97932, 3,    7802.67,  119.6,   0.97932
"SCN_CN15_9004_CEI220_ATV", 13.8, 1,    7810.67,   -0.3,   0.98032, 2,    7810.64, -120.3,   0.98032, 3,    7810.64,  119.7,   0.98032
"SCN_CN15_9005_CEI220_ATV", 13.8, 1,    7810.66,   -0.3,   0.98032, 2,    7810.64, -120.3,   0.98032, 3,    7810.64,  119.7,   0.98032
"SCN_CN15_9088_CEI201_ATV", 13.8, 1,    7809.99,   -0.3,   0.98024, 2,    7809.96, -120.3,   0.98024, 3,    7809.96,  119.7,   0.98024
"SCN_CN15_9089_CEI201_ATV", 13.8, 1,    7809.99,   -0.3,   0.98024, 2,    7809.96, -120.3,   0.98024, 3,    7809.97,  119.7,   0.98024
"SCN_CN15_9016_CEIRJ003", 13.8, 1,    7810.04,   -0.3,   0.98025, 2,    7810.02, -120.3,   0.98024, 3,    7810.02,  119.7,   0.98024
"SCN_CN15_9089_CEI201_ATV_S", 13.8, 1,    7809.99,   -0.3,   0.98024, 2,    7809.96, -120.3,   0.98024, 3,    7809.97,  119.7,   0.98024
"SCN_CN15_9123_CEI69B", 13.8, 1,    7809.91,   -0.3,   0.98023, 2,    7809.88, -120.3,   0.98023, 3,    7809.88,  119.7,   0.98023
"SCN_CN15_9121_CEI69B", 13.8, 1,    7809.73,   -0.3,   0.98021, 2,    7809.71, -120.3,    0.9802, 3,    7809.71,  119.7,    0.9802
"SCN_CN15_9119_CEI69B", 13.8, 1,    7809.52,   -0.3,   0.98018, 2,     7809.5, -120.3,   0.98018, 3,     7809.5,  119.7,   0.98018
"SCN_CN15_9276_CEI109", 13.8, 1,    7796.71,   -0.4,   0.97857, 2,    7796.69, -120.4,   0.97857, 3,    7796.69,  119.6,   0.97857
"SCN_CN15_9277_CEI109", 13.8, 1,    7796.54,   -0.4,   0.97855, 2,    7796.52, -120.4,   0.97855, 3,    7796.52,  119.6,   0.97855
"SCN_CN15_9118_CEI69B", 13.8, 1,    7809.33,   -0.3,   0.98016, 2,     7809.3, -120.3,   0.98015, 3,     7809.3,  119.7,   0.98015
"SCN_CN15_9114_CEI230_ATV", 13.8, 1,    7808.83,   -0.3,   0.98009, 2,    7808.81, -120.3,   0.98009, 3,    7808.81,  119.7,   0.98009
"SCN_CN15_9113_CEI230_ATV", 13.8, 1,    7808.47,   -0.3,   0.98005, 2,    7808.45, -120.3,   0.98005, 3,    7808.45,  119.7,   0.98005
"SCN_CN15_9112_CEI230_ATV", 13.8, 1,    7807.79,   -0.3,   0.97996, 2,    7807.77, -120.3,   0.97996, 3,    7807.77,  119.7,   0.97996
"SCN_CN15_9111_CEI230_ATV_S", 13.8, 1,    7807.73,   -0.3,   0.97996, 2,    7807.71, -120.3,   0.97995, 3,    7807.71,  119.7,   0.97995
"SCN_CN15_9110_CEI230_ATV", 13.8, 1,    7807.73,   -0.3,   0.97996, 2,    7807.71, -120.3,   0.97995, 3,    7807.71,  119.7,   0.97995
"SCN_CN15_9111_CEI230_ATV", 13.8, 1,    7807.73,   -0.3,   0.97996, 2,    7807.71, -120.3,   0.97995, 3,    7807.71,  119.7,   0.97995
"SCN_CN15_9109_CEI230_ATV", 13.8, 1,    7807.73,   -0.3,   0.97996, 2,    7807.71, -120.3,   0.97995, 3,    7807.71,  119.7,   0.97995
"SCN_CN15_9108_CEI230_ATV", 13.8, 1,    7807.73,   -0.3,   0.97996, 2,     7807.7, -120.3,   0.97995, 3,     7807.7,  119.7,   0.97995
"SCN_CN15_9107_CEI230_ATV", 13.8, 1,    7807.73,   -0.3,   0.97995, 2,     7807.7, -120.3,   0.97995, 3,     7807.7,  119.7,   0.97995
"SCN_CN15_9106_CEI230_ATV", 13.8, 1,    7807.72,   -0.3,   0.97995, 2,     7807.7, -120.3,   0.97995, 3,     7807.7,  119.7,   0.97995
"SCN_CN15_9278_CEI109", 13.8, 1,    7796.39,   -0.4,   0.97853, 2,    7796.36, -120.4,   0.97853, 3,    7796.36,  119.6,   0.97853
"SCN_CN15_9104_CEI230_ATV", 13.8, 1,    7807.72,   -0.3,   0.97995, 2,     7807.7, -120.3,   0.97995, 3,     7807.7,  119.7,   0.97995
"SCN_CN15_9105_CEI230_ATV", 13.8, 1,    7807.72,   -0.3,   0.97995, 2,     7807.7, -120.3,   0.97995, 3,     7807.7,  119.7,   0.97995
"SCN_CN15_9103_CEI230_ATV", 13.8, 1,    7807.72,   -0.3,   0.97995, 2,     7807.7, -120.3,   0.97995, 3,     7807.7,  119.7,   0.97995
"SCN_CN15_9102_CEI230_ATV", 13.8, 1,    7807.72,   -0.3,   0.97995, 2,     7807.7, -120.3,   0.97995, 3,     7807.7,  119.7,   0.97995
"SCN_CN15_9100_CEI230_ATV", 13.8, 1,    7807.72,   -0.3,   0.97995, 2,     7807.7, -120.3,   0.97995, 3,     7807.7,  119.7,   0.97995
"SCN_CN15_9099_CEI230_ATV", 13.8, 1,    7807.72,   -0.3,   0.97995, 2,    7807.69, -120.3,   0.97995, 3,     7807.7,  119.7,   0.97995
"SCN_CN15_9098_CEI230_ATV", 13.8, 1,    7807.72,   -0.3,   0.97995, 2,    7807.69, -120.3,   0.97995, 3,    7807.69,  119.7,   0.97995
"SCN_CN15_9097_CEI230_ATV", 13.8, 1,    7807.72,   -0.3,   0.97995, 2,    7807.69, -120.3,   0.97995, 3,    7807.69,  119.7,   0.97995
"SCN_CN15_9096_CEI230_ATV", 13.8, 1,    7807.72,   -0.3,   0.97995, 2,    7807.69, -120.3,   0.97995, 3,    7807.69,  119.7,   0.97995
"SCN_CN15_9094_CEI230_ATV", 13.8, 1,    7807.71,   -0.3,   0.97995, 2,    7807.69, -120.3,   0.97995, 3,    7807.69,  119.7,   0.97995
"SCN_CN15_9281_CEI109", 13.8, 1,    7796.27,   -0.4,   0.97852, 2,    7796.25, -120.4,   0.97851, 3,    7796.25,  119.6,   0.97851
"SCN_CN15_9095_CEI230_ATV", 13.8, 1,    7807.71,   -0.3,   0.97995, 2,    7807.69, -120.3,   0.97995, 3,    7807.69,  119.7,   0.97995
"SCN_CN15_9120_CEI230_ATV", 13.8, 1,    7807.03,   -0.3,   0.97987, 2,    7807.01, -120.3,   0.97986, 3,    7807.01,  119.7,   0.97986
"SCN_CN15_9115_CEI230_ATV", 13.8, 1,    7807.02,   -0.3,   0.97987, 2,       7807, -120.3,   0.97986, 3,       7807,  119.7,   0.97986
"SCN_CN15_9119_CEI230_ATV", 13.8, 1,    7806.35,   -0.3,   0.97978, 2,    7806.33, -120.3,   0.97978, 3,    7806.33,  119.7,   0.97978
"SCN_CN15_9331_CEI109", 13.8, 1,    7791.15,   -0.4,   0.97787, 2,    7791.13, -120.4,   0.97787, 3,    7791.13,  119.6,   0.97787
"SCN_CN15_9332_CEI109", 13.8, 1,    7791.12,   -0.4,   0.97787, 2,     7791.1, -120.4,   0.97787, 3,     7791.1,  119.6,   0.97787
"SCN_CN15_9118_CEI230_ATV", 13.8, 1,    7805.68,   -0.3,    0.9797, 2,    7805.65, -120.3,   0.97969, 3,    7805.65,  119.7,   0.97969
"SCN_CN15_9117_CEI230_ATV", 13.8, 1,    7804.98,   -0.3,   0.97961, 2,    7804.95, -120.3,   0.97961, 3,    7804.96,  119.7,   0.97961
"SCN_CN15_9116_CEI230_ATV", 13.8, 1,    7804.32,   -0.3,   0.97953, 2,    7804.29, -120.3,   0.97952, 3,    7804.29,  119.7,   0.97952
"SCN_CN15_9014_CEIRJ003", 13.8, 1,    7803.68,   -0.3,   0.97945, 2,    7803.66, -120.3,   0.97944, 3,    7803.66,  119.7,   0.97944
"SCN_CN15_9002_CEI075", 13.8, 1,     7803.6,   -0.3,   0.97944, 2,    7803.58, -120.3,   0.97943, 3,    7803.58,  119.7,   0.97943
"SCN_CN15_9003_CEI075", 13.8, 1,    7803.52,   -0.3,   0.97943, 2,    7803.49, -120.3,   0.97942, 3,     7803.5,  119.7,   0.97942
"SCN_CN15_9282_CEI109", 13.8, 1,    7796.17,   -0.4,    0.9785, 2,    7796.14, -120.4,    0.9785, 3,    7796.14,  119.6,    0.9785
"SCN_CN15_9004_CEI075", 13.8, 1,    7803.43,   -0.3,   0.97942, 2,     7803.4, -120.3,   0.97941, 3,     7803.4,  119.7,   0.97941
"SCN_CN15_9052_CEIRJ006_ATV", 13.8, 1,    7803.52,   -0.3,   0.97943, 2,    7803.49, -120.3,   0.97942, 3,    7803.49,  119.7,   0.97942
"SCN_CN15_9005_CEI075", 13.8, 1,    7803.33,   -0.3,    0.9794, 2,    7803.31, -120.3,    0.9794, 3,    7803.31,  119.7,    0.9794
"SCN_CN15_9006_CEI075", 13.8, 1,    7803.21,   -0.3,   0.97939, 2,    7803.19, -120.3,   0.97939, 3,    7803.19,  119.7,   0.97939
"SCN_CN15_9007_CEI075", 13.8, 1,    7803.13,   -0.3,   0.97938, 2,     7803.1, -120.3,   0.97937, 3,     7803.1,  119.7,   0.97937
"SCN_CN15_9008_CEI075", 13.8, 1,    7803.01,   -0.3,   0.97936, 2,    7802.99, -120.3,   0.97936, 3,    7802.99,  119.7,   0.97936
"SCN_CN15_9009_CEI075", 13.8, 1,    7802.91,   -0.3,   0.97935, 2,    7802.88, -120.3,   0.97935, 3,    7802.88,  119.7,   0.97935
"SCN_CN15_9169_CEI230_ATV", 13.8, 1,     7802.9,   -0.3,   0.97935, 2,    7802.88, -120.3,   0.97935, 3,    7802.88,  119.7,   0.97935
"SCN_CN15_9010_CEI075", 13.8, 1,    7802.89,   -0.3,   0.97935, 2,    7802.87, -120.3,   0.97934, 3,    7802.87,  119.7,   0.97934
"SCN_CN15_9011_CEI075", 13.8, 1,    7802.87,   -0.3,   0.97935, 2,    7802.85, -120.3,   0.97934, 3,    7802.85,  119.7,   0.97934
"SCN_CN15_9012_CEI075", 13.8, 1,    7802.86,   -0.3,   0.97934, 2,    7802.83, -120.3,   0.97934, 3,    7802.83,  119.7,   0.97934
"SCN_CN15_9283_CEI109", 13.8, 1,       7796,   -0.4,   0.97848, 2,    7795.98, -120.4,   0.97848, 3,    7795.98,  119.6,   0.97848
"SCN_CN15_9013_CEI075", 13.8, 1,    7802.83,   -0.3,   0.97934, 2,    7802.81, -120.3,   0.97934, 3,    7802.81,  119.7,   0.97934
"SCN_CN15_9014_CEI075", 13.8, 1,    7802.81,   -0.3,   0.97934, 2,    7802.78, -120.3,   0.97933, 3,    7802.78,  119.7,   0.97933
"SCN_CN15_9015_CEI075", 13.8, 1,    7802.79,   -0.3,   0.97933, 2,    7802.76, -120.3,   0.97933, 3,    7802.76,  119.7,   0.97933
"SCN_CN15_9016_CEI075", 13.8, 1,    7802.76,   -0.3,   0.97933, 2,    7802.74, -120.3,   0.97933, 3,    7802.74,  119.7,   0.97933
"SCN_CN15_9017_CEI075", 13.8, 1,    7802.74,   -0.3,   0.97933, 2,    7802.72, -120.3,   0.97933, 3,    7802.72,  119.7,   0.97933
"SCN_CN15_9018_CEI075", 13.8, 1,    7802.72,   -0.3,   0.97933, 2,    7802.69, -120.3,   0.97932, 3,    7802.69,  119.7,   0.97932
"SCN_CN15_9019_CEI075", 13.8, 1,    7802.71,   -0.3,   0.97932, 2,    7802.68, -120.3,   0.97932, 3,    7802.68,  119.7,   0.97932
"SCN_CN15_9020_CEI075", 13.8, 1,    7802.69,   -0.3,   0.97932, 2,    7802.67, -120.3,   0.97932, 3,    7802.67,  119.7,   0.97932
"SCN_CN15_9022_CEI075", 13.8, 1,    7802.67,   -0.3,   0.97932, 2,    7802.65, -120.3,   0.97932, 3,    7802.65,  119.7,   0.97932
"SCN_CN15_9023_CEI075", 13.8, 1,    7802.66,   -0.3,   0.97932, 2,    7802.63, -120.3,   0.97932, 3,    7802.63,  119.7,   0.97932
"SCN_CN15_9284_CEI109", 13.8, 1,    7795.88,   -0.4,   0.97847, 2,    7795.86, -120.4,   0.97847, 3,    7795.86,  119.6,   0.97847
"SCN_CN15_9024_CEI075", 13.8, 1,    7802.63,   -0.3,   0.97932, 2,    7802.61, -120.3,   0.97931, 3,    7802.61,  119.7,   0.97931
"SCN_CN15_9025_CEI075", 13.8, 1,    7802.61,   -0.3,   0.97931, 2,    7802.59, -120.3,   0.97931, 3,    7802.59,  119.7,   0.97931
"SCN_CN15_9072_CEI230_ATV", 13.8, 1,    7802.61,   -0.3,   0.97931, 2,    7802.59, -120.3,   0.97931, 3,    7802.59,  119.7,   0.97931
"SCN_CN15_9028_CEI075", 13.8, 1,    7802.57,   -0.3,   0.97931, 2,    7802.54, -120.3,    0.9793, 3,    7802.54,  119.7,    0.9793
"SCN_CN15_9029_CEI075", 13.8, 1,    7802.56,   -0.3,   0.97931, 2,    7802.53, -120.3,    0.9793, 3,    7802.53,  119.7,    0.9793
"SCN_CN15_9027_CEI075", 13.8, 1,    7802.58,   -0.3,   0.97931, 2,    7802.55, -120.3,   0.97931, 3,    7802.55,  119.7,   0.97931
"SCN_CN15_9026_CEI075", 13.8, 1,     7802.6,   -0.3,   0.97931, 2,    7802.57, -120.3,   0.97931, 3,    7802.57,  119.7,   0.97931
"SCN_CN15_9030_CEI075", 13.8, 1,    7802.55,   -0.3,   0.97931, 2,    7802.53, -120.3,    0.9793, 3,    7802.53,  119.7,    0.9793
"SCN_CN15_9074_CEI230_ATV", 13.8, 1,    7802.54,   -0.3,    0.9793, 2,    7802.51, -120.3,    0.9793, 3,    7802.51,  119.7,    0.9793
"SCN_CN15_9075_CEI230_ATV", 13.8, 1,    7802.53,   -0.3,    0.9793, 2,    7802.51, -120.3,    0.9793, 3,    7802.51,  119.7,    0.9793
"SCN_CN15_9292_CEI109_S", 13.8, 1,    7795.69,   -0.4,   0.97844, 2,    7795.67, -120.4,   0.97844, 3,    7795.67,  119.6,   0.97844
"SCN_CN15_9076_CEI230_ATV_S", 13.8, 1,    7802.52,   -0.3,    0.9793, 2,     7802.5, -120.3,    0.9793, 3,     7802.5,  119.7,    0.9793
"SCN_CN15_9076_CEI230_ATV", 13.8, 1,    7802.52,   -0.3,    0.9793, 2,     7802.5, -120.3,    0.9793, 3,     7802.5,  119.7,    0.9793
"SCN_CN15_9079_CEI230_ATV", 13.8, 1,    7802.52,   -0.3,    0.9793, 2,    7802.49, -120.3,    0.9793, 3,    7802.49,  119.7,    0.9793
"SCN_CN15_9078_CEI230_ATV", 13.8, 1,    7802.51,   -0.3,    0.9793, 2,    7802.49, -120.3,    0.9793, 3,    7802.49,  119.7,    0.9793
"SCN_CN15_9077_CEI230_ATV", 13.8, 1,    7802.52,   -0.3,    0.9793, 2,    7802.49, -120.3,    0.9793, 3,    7802.49,  119.7,    0.9793
"SCN_CN15_9080_CEI230_ATV", 13.8, 1,    7802.51,   -0.3,    0.9793, 2,    7802.48, -120.3,    0.9793, 3,    7802.48,  119.7,    0.9793
"SCN_CN15_9081_CEI230_ATV", 13.8, 1,     7802.5,   -0.3,    0.9793, 2,    7802.48, -120.3,    0.9793, 3,    7802.48,  119.7,    0.9793
"SCN_CN15_9082_CEI230_ATV", 13.8, 1,     7802.5,   -0.3,    0.9793, 2,    7802.48, -120.3,    0.9793, 3,    7802.48,  119.7,    0.9793
"SCN_CN15_9084_CEI230_ATV", 13.8, 1,     7802.5,   -0.3,    0.9793, 2,    7802.47, -120.3,    0.9793, 3,    7802.47,  119.7,    0.9793
"SCN_CN15_9085_CEI230_ATV", 13.8, 1,    7802.49,   -0.3,    0.9793, 2,    7802.47, -120.3,    0.9793, 3,    7802.47,  119.7,    0.9793
"SCN_CN15_9086_CEI230_ATV", 13.8, 1,    7802.49,   -0.3,    0.9793, 2,    7802.47, -120.3,   0.97929, 3,    7802.47,  119.7,   0.97929
"SCN_CN15_9292_CEI109", 13.8, 1,    7795.69,   -0.4,   0.97844, 2,    7795.67, -120.4,   0.97844, 3,    7795.67,  119.6,   0.97844
"SCN_CN15_9423_CEI109", 13.8, 1,    7795.68,   -0.4,   0.97844, 2,    7795.66, -120.4,   0.97844, 3,    7795.66,  119.6,   0.97844
"SCN_CN15_9087_CEI230_ATV", 13.8, 1,    7802.49,   -0.3,    0.9793, 2,    7802.46, -120.3,   0.97929, 3,    7802.46,  119.7,   0.97929
"SCN_CN15_9083_CEI230_ATV", 13.8, 1,     7802.5,   -0.3,    0.9793, 2,    7802.47, -120.3,    0.9793, 3,    7802.47,  119.7,    0.9793
"SCN_CN15_9088_CEI230_ATV", 13.8, 1,     7802.5,   -0.3,    0.9793, 2,    7802.47, -120.3,    0.9793, 3,    7802.47,  119.7,    0.9793
"SCN_CN15_9090_CEI230_ATV", 13.8, 1,    7802.49,   -0.3,    0.9793, 2,    7802.47, -120.3,    0.9793, 3,    7802.47,  119.7,    0.9793
"SCN_CN15_9084_CEI148_ATV", 13.8, 1,    7789.82,   -0.4,   0.97771, 2,     7789.8, -120.4,   0.97771, 3,     7789.8,  119.6,   0.97771
"SCN_CN15_9083_CEI148_ATV", 13.8, 1,    7789.87,   -0.4,   0.97771, 2,    7789.85, -120.4,   0.97771, 3,    7789.85,  119.6,   0.97771
"SCN_CN15_9086_CEI148_ATV", 13.8, 1,    7789.79,   -0.4,    0.9777, 2,    7789.77, -120.4,    0.9777, 3,    7789.77,  119.6,    0.9777
"SCN_CN15_9100_CEI201_ATV", 13.8, 1,    7808.96,   -0.3,   0.98011, 2,    7808.93, -120.3,   0.98011, 3,    7808.93,  119.7,   0.98011
"SCN_CN15_9102_CEI201_ATV", 13.8, 1,    7808.96,   -0.3,   0.98011, 2,    7808.94, -120.3,   0.98011, 3,    7808.94,  119.7,   0.98011
"SCN_CN15_9087_CEI148_ATV", 13.8, 1,    7789.72,   -0.4,   0.97769, 2,    7789.69, -120.4,   0.97769, 3,    7789.69,  119.6,   0.97769
"SCN_CN15_9088_CEI148_ATV", 13.8, 1,    7789.71,   -0.4,   0.97769, 2,    7789.69, -120.4,   0.97769, 3,    7789.69,  119.6,   0.97769
"SCN_CN15_9090_CEI148_ATV", 13.8, 1,    7789.71,   -0.4,   0.97769, 2,    7789.68, -120.4,   0.97769, 3,    7789.68,  119.6,   0.97769
"SCN_CN15_9424_CEI109", 13.8, 1,    7795.67,   -0.4,   0.97844, 2,    7795.65, -120.4,   0.97844, 3,    7795.65,  119.6,   0.97844
"SCN_CN15_9034_CEI148A_ATV", 13.8, 1,    7789.67,   -0.4,   0.97769, 2,    7789.64, -120.4,   0.97769, 3,    7789.64,  119.6,   0.97769
"SCN_CN15_9033_CEI148A_ATV", 13.8, 1,    7789.62,   -0.4,   0.97768, 2,     7789.6, -120.4,   0.97768, 3,     7789.6,  119.6,   0.97768
"SCN_CN15_9035_CEI148A_ATV", 13.8, 1,    7789.62,   -0.4,   0.97768, 2,     7789.6, -120.4,   0.97768, 3,     7789.6,  119.6,   0.97768
"SCN_CN15_9031_CEI148A_ATV", 13.8, 1,    7789.58,   -0.4,   0.97768, 2,    7789.56, -120.4,   0.97767, 3,    7789.56,  119.6,   0.97767
"SCN_CN15_9030_CEI148A_ATV", 13.8, 1,    7789.54,   -0.4,   0.97767, 2,    7789.51, -120.4,   0.97767, 3,    7789.51,  119.6,   0.97767
"SCN_CN15_9029_CEI148A_ATV_S", 13.8, 1,    7789.53,   -0.4,   0.97767, 2,    7789.51, -120.4,   0.97767, 3,    7789.51,  119.6,   0.97767
"SCN_CN15_9028_CEI148A_ATV", 13.8, 1,    7789.53,   -0.4,   0.97767, 2,    7789.51, -120.4,   0.97767, 3,    7789.51,  119.6,   0.97767
"SCN_CN15_9029_CEI148A_ATV", 13.8, 1,    7789.53,   -0.4,   0.97767, 2,    7789.51, -120.4,   0.97767, 3,    7789.51,  119.6,   0.97767
"SCN_CN15_9032_CEI148A_ATV", 13.8, 1,    7789.53,   -0.4,   0.97767, 2,    7789.51, -120.4,   0.97767, 3,    7789.51,  119.6,   0.97767
"SCN_CN15_9078_CEI201_ATV", 13.8, 1,    7789.53,   -0.4,   0.97767, 2,    7789.51, -120.4,   0.97767, 3,    7789.51,  119.6,   0.97767
"SCN_CN15_9075_CEI201_ATV", 13.8, 1,    7789.53,   -0.4,   0.97767, 2,     7789.5, -120.4,   0.97767, 3,     7789.5,  119.6,   0.97767
"SCN_CN15_9425_CEI109", 13.8, 1,    7795.67,   -0.4,   0.97844, 2,    7795.64, -120.4,   0.97844, 3,    7795.64,  119.6,   0.97844
"SCN_CN15_9025_CEI148A_ATV", 13.8, 1,     7789.5,   -0.4,   0.97767, 2,    7789.47, -120.4,   0.97766, 3,    7789.47,  119.6,   0.97766
"SCN_CN15_9023_CEI148A_ATV_S", 13.8, 1,    7789.42,   -0.4,   0.97766, 2,     7789.4, -120.4,   0.97765, 3,     7789.4,  119.6,   0.97765
"SCN_CN15_9028_CEI69A", 13.8, 1,    7789.42,   -0.4,   0.97766, 2,    7789.39, -120.4,   0.97765, 3,    7789.39,  119.6,   0.97765
"SCN_CN15_9023_CEI148A_ATV", 13.8, 1,    7789.42,   -0.4,   0.97766, 2,     7789.4, -120.4,   0.97765, 3,     7789.4,  119.6,   0.97765
"SCN_CN15_9022_CEI148A_ATV", 13.8, 1,    7789.41,   -0.4,   0.97766, 2,    7789.39, -120.4,   0.97765, 3,    7789.39,  119.6,   0.97765
"SCN_CN15_9021_CEI148A_ATV", 13.8, 1,    7789.41,   -0.4,   0.97766, 2,    7789.39, -120.4,   0.97765, 3,    7789.39,  119.6,   0.97765
"SCN_CN15_9020_CEI148A_ATV_S", 13.8, 1,    7789.41,   -0.4,   0.97766, 2,    7789.39, -120.4,   0.97765, 3,    7789.39,  119.6,   0.97765
"SCN_CN15_9020_CEI148A_ATV", 13.8, 1,    7789.41,   -0.4,   0.97766, 2,    7789.39, -120.4,   0.97765, 3,    7789.39,  119.6,   0.97765
"SCN_CN15_9019_CEI148A_ATV", 13.8, 1,    7789.41,   -0.4,   0.97766, 2,    7789.38, -120.4,   0.97765, 3,    7789.38,  119.6,   0.97765
"SCN_CN15_9001_CEI148A_ATV", 13.8, 1,    7789.19,   -0.4,   0.97763, 2,    7789.17, -120.4,   0.97763, 3,    7789.17,  119.6,   0.97763
"SCN_CN15_9002_CEI148A_ATV", 13.8, 1,    7789.19,   -0.4,   0.97763, 2,    7789.17, -120.4,   0.97763, 3,    7789.17,  119.6,   0.97763
"SCN_CN15_9003_CEI148A_ATV", 13.8, 1,    7789.19,   -0.4,   0.97763, 2,    7789.17, -120.4,   0.97763, 3,    7789.17,  119.6,   0.97763
"SCN_CN15_9005_CEI148A_ATV", 13.8, 1,     7789.2,   -0.4,   0.97763, 2,    7789.17, -120.4,   0.97763, 3,    7789.17,  119.6,   0.97763
"SCN_CN15_9426_CEI109", 13.8, 1,    7795.66,   -0.4,   0.97844, 2,    7795.64, -120.4,   0.97844, 3,    7795.64,  119.6,   0.97844
"SCN_CN15_9004_CEI148A_ATV", 13.8, 1,     7789.2,   -0.4,   0.97763, 2,    7789.17, -120.4,   0.97763, 3,    7789.18,  119.6,   0.97763
"SCN_CN15_9143_CEI220_ATV", 13.8, 1,    7802.71,   -0.4,   0.97933, 2,    7802.69, -120.4,   0.97932, 3,    7802.69,  119.6,   0.97932
"SCN_CN15_9144_CEI220_ATV", 13.8, 1,    7802.71,   -0.4,   0.97933, 2,    7802.69, -120.4,   0.97932, 3,    7802.69,  119.6,   0.97932
"SCN_CN15_9006_CEI148A_ATV", 13.8, 1,     7789.2,   -0.4,   0.97763, 2,    7789.18, -120.4,   0.97763, 3,    7789.18,  119.6,   0.97763
"SCN_CN15_9007_CEI148A_ATV", 13.8, 1,    7789.21,   -0.4,   0.97763, 2,    7789.18, -120.4,   0.97763, 3,    7789.18,  119.6,   0.97763
"SCN_CN15_9008_CEI148A_ATV", 13.8, 1,    7789.21,   -0.4,   0.97763, 2,    7789.19, -120.4,   0.97763, 3,    7789.19,  119.6,   0.97763
"SCN_CN15_9010_CEI148A_ATV", 13.8, 1,    7789.23,   -0.4,   0.97763, 2,     7789.2, -120.4,   0.97763, 3,     7789.2,  119.6,   0.97763
"SCN_CN15_9009_CEI148A_ATV", 13.8, 1,    7789.21,   -0.4,   0.97763, 2,    7789.19, -120.4,   0.97763, 3,    7789.19,  119.6,   0.97763
"SCN_CN15_9011_CEI148A_ATV", 13.8, 1,    7789.23,   -0.4,   0.97763, 2,    7789.21, -120.4,   0.97763, 3,    7789.21,  119.6,   0.97763
"SCN_CN15_9012_CEI148A_ATV", 13.8, 1,    7789.24,   -0.4,   0.97763, 2,    7789.22, -120.4,   0.97763, 3,    7789.22,  119.6,   0.97763
"SCN_CN15_9013_CEI148A_ATV", 13.8, 1,    7789.25,   -0.4,   0.97764, 2,    7789.23, -120.4,   0.97763, 3,    7789.23,  119.6,   0.97763
"SCN_CN15_9014_CEI148A_ATV", 13.8, 1,    7789.27,   -0.4,   0.97764, 2,    7789.25, -120.4,   0.97764, 3,    7789.25,  119.6,   0.97764
"SCN_CN15_9015_CEI148A_ATV", 13.8, 1,    7789.28,   -0.4,   0.97764, 2,    7789.26, -120.4,   0.97764, 3,    7789.26,  119.6,   0.97764
"SCN_CN15_9427_CEI109", 13.8, 1,    7795.65,   -0.4,   0.97844, 2,    7795.63, -120.4,   0.97844, 3,    7795.63,  119.6,   0.97844
"SCN_CN15_9016_CEI148A_ATV", 13.8, 1,     7789.3,   -0.4,   0.97764, 2,    7789.28, -120.4,   0.97764, 3,    7789.28,  119.6,   0.97764
"SCN_CN15_9017_CEI148A_ATV", 13.8, 1,    7789.31,   -0.4,   0.97764, 2,    7789.28, -120.4,   0.97764, 3,    7789.29,  119.6,   0.97764
"SCN_CN15_9018_CEI148A_ATV", 13.8, 1,    7789.32,   -0.4,   0.97764, 2,    7789.29, -120.4,   0.97764, 3,    7789.29,  119.6,   0.97764
"SCN_CN15_9020_CEI69A", 13.8, 1,    7789.34,   -0.4,   0.97765, 2,    7789.32, -120.4,   0.97764, 3,    7789.32,  119.6,   0.97764
"SCN_CN15_9018_CEI148A_ATV_S", 13.8, 1,    7789.32,   -0.4,   0.97764, 2,    7789.29, -120.4,   0.97764, 3,    7789.29,  119.6,   0.97764
"SCN_CN15_9019_CEI69A", 13.8, 1,    7789.33,   -0.4,   0.97765, 2,    7789.31, -120.4,   0.97764, 3,    7789.31,  119.6,   0.97764
"SCN_CN15_9018_CEI69A", 13.8, 1,    7789.33,   -0.4,   0.97765, 2,     7789.3, -120.4,   0.97764, 3,     7789.3,  119.6,   0.97764
"SCN_CN15_9017_CEI69A", 13.8, 1,    7789.32,   -0.4,   0.97764, 2,     7789.3, -120.4,   0.97764, 3,     7789.3,  119.6,   0.97764
"SCN_CN15_9016_CEI69A", 13.8, 1,    7789.32,   -0.4,   0.97764, 2,     7789.3, -120.4,   0.97764, 3,     7789.3,  119.6,   0.97764
"SCN_CN15_9015_CEI69A", 13.8, 1,    7789.32,   -0.4,   0.97764, 2,     7789.3, -120.4,   0.97764, 3,     7789.3,  119.6,   0.97764
"SCN_CN15_9428_CEI109", 13.8, 1,    7795.64,   -0.4,   0.97844, 2,    7795.62, -120.4,   0.97844, 3,    7795.62,  119.6,   0.97844
"SCN_CN15_9012_CEI69A_S", 13.8, 1,    7789.32,   -0.4,   0.97764, 2,    7789.29, -120.4,   0.97764, 3,    7789.29,  119.6,   0.97764
"SCN_CN15_9012_CEI69A", 13.8, 1,    7789.32,   -0.4,   0.97764, 2,    7789.29, -120.4,   0.97764, 3,    7789.29,  119.6,   0.97764
"SCN_CN15_9013_CEI69A", 13.8, 1,    7789.32,   -0.4,   0.97764, 2,    7789.29, -120.4,   0.97764, 3,    7789.29,  119.6,   0.97764
"SCN_CN15_9014_CEI69A", 13.8, 1,    7789.31,   -0.4,   0.97764, 2,    7789.29, -120.4,   0.97764, 3,    7789.29,  119.6,   0.97764
"SCN_CN15_9011_CEI69A", 13.8, 1,    7789.32,   -0.4,   0.97764, 2,    7789.29, -120.4,   0.97764, 3,    7789.29,  119.6,   0.97764
"SCN_CN15_9073_CEIRJ006_ATV", 13.8, 1,     7789.7,   -0.4,   0.97769, 2,    7789.68, -120.4,   0.97769, 3,    7789.68,  119.6,   0.97769
"SCN_CN15_9091_CEI148_ATV", 13.8, 1,     7789.7,   -0.4,   0.97769, 2,    7789.68, -120.4,   0.97769, 3,    7789.68,  119.6,   0.97769
"SCN_CN15_9092_CEI148_ATV", 13.8, 1,     7789.7,   -0.4,   0.97769, 2,    7789.68, -120.4,   0.97769, 3,    7789.68,  119.6,   0.97769
"SCN_CN15_9089_CEI148_ATV", 13.8, 1,     7789.7,   -0.4,   0.97769, 2,    7789.68, -120.4,   0.97769, 3,    7789.68,  119.6,   0.97769
"SCN_CN15_9042_CEI69A", 13.8, 1,    7789.71,   -0.4,   0.97769, 2,    7789.68, -120.4,   0.97769, 3,    7789.69,  119.6,   0.97769
"SCN_CN15_9100_CEI072", 13.8, 1,    7817.45,   -0.3,   0.98118, 2,    7817.43, -120.3,   0.98117, 3,    7817.43,  119.7,   0.98117
"SCN_CN15_9101_CEI072", 13.8, 1,    7817.44,   -0.3,   0.98117, 2,    7817.42, -120.3,   0.98117, 3,    7817.43,  119.7,   0.98117
"SCN_CN15_9102_CEI072", 13.8, 1,    7817.44,   -0.3,   0.98117, 2,    7817.42, -120.3,   0.98117, 3,    7817.42,  119.7,   0.98117
"SCN_CN15_9103_CEI072", 13.8, 1,    7817.43,   -0.3,   0.98117, 2,    7817.41, -120.3,   0.98117, 3,    7817.42,  119.7,   0.98117
"SCN_CN15_9104_CEI072", 13.8, 1,    7817.43,   -0.3,   0.98117, 2,    7817.41, -120.3,   0.98117, 3,    7817.41,  119.7,   0.98117
"SCN_CN15_9105_CEI072", 13.8, 1,    7817.42,   -0.3,   0.98117, 2,     7817.4, -120.3,   0.98117, 3,     7817.4,  119.7,   0.98117
"SCN_CN15_9491_CEI109", 13.8, 1,    7791.21,   -0.4,   0.97788, 2,    7791.19, -120.4,   0.97788, 3,    7791.19,  119.6,   0.97788
"SCN_CN15_9492_CEI109", 13.8, 1,    7791.21,   -0.4,   0.97788, 2,    7791.18, -120.4,   0.97788, 3,    7791.18,  119.6,   0.97788
"SCN_CN15_9106_CEI072", 13.8, 1,    7817.41,   -0.3,   0.98117, 2,    7817.39, -120.3,   0.98117, 3,     7817.4,  119.7,   0.98117
"SCN_CN15_9107_CEI072", 13.8, 1,     7817.4,   -0.3,   0.98117, 2,    7817.38, -120.3,   0.98117, 3,    7817.39,  119.7,   0.98117
"SCN_CN15_9108_CEI072", 13.8, 1,    7817.39,   -0.3,   0.98117, 2,    7817.37, -120.3,   0.98117, 3,    7817.38,  119.7,   0.98117
"SCN_CN15_9109_CEI072", 13.8, 1,    7817.39,   -0.3,   0.98117, 2,    7817.37, -120.3,   0.98117, 3,    7817.37,  119.7,   0.98117
"SCN_CN15_9110_CEI072", 13.8, 1,    7817.38,   -0.3,   0.98117, 2,    7817.36, -120.3,   0.98116, 3,    7817.37,  119.7,   0.98116
"SCN_CN15_9111_CEI072", 13.8, 1,    7817.38,   -0.3,   0.98117, 2,    7817.36, -120.3,   0.98116, 3,    7817.36,  119.7,   0.98116
"SCN_CN15_9112_CEI072", 13.8, 1,    7817.37,   -0.3,   0.98117, 2,    7817.35, -120.3,   0.98116, 3,    7817.35,  119.7,   0.98116
"SCN_CN15_9113_CEI072", 13.8, 1,    7817.36,   -0.3,   0.98116, 2,    7817.34, -120.3,   0.98116, 3,    7817.35,  119.7,   0.98116
...
"SCN_CN15_592-0899-22", 13.8, 1,    7818.75,   -0.3,   0.98134, 2,    7818.73, -120.3,   0.98134, 3,    7818.73,  119.7,   0.98134
"SCN_CN15_592-0899-22_S", 13.8, 1,    7818.75,   -0.3,   0.98134, 2,    7818.73, -120.3,   0.98134, 3,    7818.73,  119.7,   0.98134
"SCN_CN15_9013_CEI69B", 13.8, 1,    7820.01,   -0.3,    0.9815, 2,    7819.99, -120.3,   0.98149, 3,    7819.99,  119.7,   0.98149
"SCN_CN15_9015_CEI69B_S", 13.8, 1,    7819.48,   -0.3,   0.98143, 2,    7819.46, -120.3,   0.98143, 3,    7819.46,  119.7,   0.98143
"SCN_CN15_9012_CEI69B", 13.8, 1,    7820.64,   -0.3,   0.98158, 2,    7820.62, -120.3,   0.98157, 3,    7820.63,  119.7,   0.98157
"SCN_CN15_9011_CEI69B", 13.8, 1,    7821.27,   -0.3,   0.98165, 2,    7821.25, -120.3,   0.98165, 3,    7821.25,  119.7,   0.98165
"SCN_CN15_9162_CEI068", 13.8, 1,    7822.05,   -0.3,   0.98175, 2,    7822.03, -120.3,   0.98175, 3,    7822.04,  119.7,   0.98175
"SCN_CN15_9163_CEI068", 13.8, 1,    7822.88,   -0.3,   0.98186, 2,    7822.86, -120.3,   0.98185, 3,    7822.86,  119.7,   0.98185
"SCN_CN15_9164_CEI068", 13.8, 1,    7824.32,   -0.3,   0.98204, 2,     7824.3, -120.3,   0.98204, 3,    7824.31,  119.7,   0.98204
"SCN_CN15_9451_CEI109", 13.8, 1,    7795.58,   -0.4,   0.97843, 2,    7795.56, -120.4,   0.97843, 3,    7795.56,  119.6,   0.97843
"SCN_CN15_9169_CEI068", 13.8, 1,    7825.71,   -0.3,   0.98221, 2,     7825.7, -120.3,   0.98221, 3,     7825.7,  119.7,   0.98221
"SCN_CN15_9170_CEI068", 13.8, 1,    7825.73,   -0.3,   0.98221, 2,    7825.71, -120.3,   0.98221, 3,    7825.71,  119.7,   0.98221
"SCN_CN15_9170_CEI068_S", 13.8, 1,    7825.73,   -0.3,   0.98221, 2,    7825.71, -120.3,   0.98221, 3,    7825.71,  119.7,   0.98221
"SCN_CN15_9171_CEI068", 13.8, 1,    7827.22,   -0.3,    0.9824, 2,     7827.2, -120.3,    0.9824, 3,     7827.2,  119.7,    0.9824
"SCN_CN15_9172_CEI068", 13.8, 1,    7828.87,   -0.3,   0.98261, 2,    7828.85, -120.3,   0.98261, 3,    7828.85,  119.7,   0.98261
"SCN_CN15_9182_CEI068", 13.8, 1,    7830.78,   -0.3,   0.98285, 2,    7830.76, -120.3,   0.98285, 3,    7830.77,  119.7,   0.98285
"SCN_CN15_9181_CEI068", 13.8, 1,    7830.78,   -0.3,   0.98285, 2,    7830.76, -120.3,   0.98285, 3,    7830.76,  119.7,   0.98285
"SCN_CN15_9182_CEI068_S", 13.8, 1,    7830.78,   -0.3,   0.98285, 2,    7830.76, -120.3,   0.98285, 3,    7830.77,  119.7,   0.98285
"SCN_CN15_9183_CEI068", 13.8, 1,    7832.78,   -0.3,    0.9831, 2,    7832.77, -120.3,    0.9831, 3,    7832.77,  119.7,    0.9831
"SCN_CN15_9183_CEI068_S", 13.8, 1,    7832.78,   -0.3,    0.9831, 2,    7832.77, -120.3,    0.9831, 3,    7832.77,  119.7,    0.9831
"SCN_CN15_9186_CEI068", 13.8, 1,    7834.27,   -0.3,   0.98329, 2,    7834.25, -120.3,   0.98328, 3,    7834.25,  119.7,   0.98328
"SCN_CN15_9107_CEI068", 13.8, 1,    7835.19,   -0.3,    0.9834, 2,    7835.17, -120.3,    0.9834, 3,    7835.17,  119.7,    0.9834
"SCN_CN15_9450_CEI109", 13.8, 1,    7795.58,   -0.4,   0.97843, 2,    7795.55, -120.4,   0.97843, 3,    7795.55,  119.6,   0.97843
"SCN_CN15_9103_CEI068", 13.8, 1,     7836.2,   -0.3,   0.98353, 2,    7836.18, -120.3,   0.98353, 3,    7836.18,  119.7,   0.98353
"SCN_CN15_9092_CEI068", 13.8, 1,       7837,   -0.3,   0.98363, 2,    7836.98, -120.3,   0.98363, 3,    7836.98,  119.7,   0.98363
"SCN_CN15_9091_CEI068", 13.8, 1,    7837.86,   -0.3,   0.98374, 2,    7837.84, -120.3,   0.98373, 3,    7837.84,  119.7,   0.98374
"SCN_CN15_9090_CEI068", 13.8, 1,    7839.46,   -0.3,   0.98394, 2,    7839.44, -120.3,   0.98394, 3,    7839.44,  119.7,   0.98394
"SCN_CN15_9089_CEI068_S", 13.8, 1,    7840.45,   -0.3,   0.98406, 2,    7840.43, -120.3,   0.98406, 3,    7840.43,  119.7,   0.98406
"SCN_CN15_9086_CEI068", 13.8, 1,    7841.77,   -0.3,   0.98423, 2,    7841.75, -120.3,   0.98423, 3,    7841.75,  119.7,   0.98423
"SCN_CN15_9085_CEI068", 13.8, 1,    7843.45,   -0.3,   0.98444, 2,    7843.44, -120.3,   0.98444, 3,    7843.44,  119.7,   0.98444
"SCN_CN15_9086_CEI068_S", 13.8, 1,    7841.77,   -0.3,   0.98423, 2,    7841.75, -120.3,   0.98423, 3,    7841.75,  119.7,   0.98423
"SCN_CN15_9082_CEI068", 13.8, 1,    7845.41,   -0.2,   0.98468, 2,    7845.39, -120.2,   0.98468, 3,    7845.39,  119.8,   0.98468
"SCN_CN15_9081_CEI068", 13.8, 1,    7847.44,   -0.2,   0.98494, 2,    7847.43, -120.2,   0.98494, 3,    7847.43,  119.8,   0.98494
"SCN_CN15_9080_CEI068", 13.8, 1,    7849.41,   -0.2,   0.98519, 2,     7849.4, -120.2,   0.98519, 3,     7849.4,  119.8,   0.98519
"SCN_CN15_9026_CEI201_ATV", 13.8, 1,    7790.75,   -0.4,   0.97782, 2,    7790.73, -120.4,   0.97782, 3,    7790.73,  119.6,   0.97782
"SCN_CN15_9027_CEI201_ATV", 13.8, 1,    7790.77,   -0.4,   0.97783, 2,    7790.75, -120.4,   0.97782, 3,    7790.75,  119.6,   0.97782
"SCN_CN15_9449_CEI109", 13.8, 1,    7795.57,   -0.4,   0.97843, 2,    7795.55, -120.4,   0.97843, 3,    7795.55,  119.6,   0.97843
"SCN_CN15_9079_CEI068", 13.8, 1,    7851.37,   -0.2,   0.98543, 2,    7851.35, -120.2,   0.98543, 3,    7851.35,  119.8,   0.98543
"SCN_CN15_9078_CEI068", 13.8, 1,    7853.32,   -0.2,   0.98568, 2,     7853.3, -120.2,   0.98568, 3,    7853.31,  119.8,   0.98568
"SCN_CN15_9077_CEI068", 13.8, 1,    7855.31,   -0.2,   0.98593, 2,     7855.3, -120.2,   0.98593, 3,     7855.3,  119.8,   0.98593
"SCN_CN15_9076_CEI068", 13.8, 1,    7857.26,   -0.2,   0.98617, 2,    7857.24, -120.2,   0.98617, 3,    7857.25,  119.8,   0.98617
"SCN_CN15_9075_CEI068", 13.8, 1,     7859.2,   -0.2,   0.98642, 2,    7859.19, -120.2,   0.98641, 3,    7859.19,  119.8,   0.98641
"SCN_CN15_9074_CEI068", 13.8, 1,     7861.2,   -0.2,   0.98667, 2,    7861.18, -120.2,   0.98666, 3,    7861.18,  119.8,   0.98666
"SCN_CN15_9073_CEI068", 13.8, 1,    7863.24,   -0.2,   0.98692, 2,    7863.23, -120.2,   0.98692, 3,    7863.23,  119.8,   0.98692
"SCN_CN15_9072_CEI068", 13.8, 1,    7865.21,   -0.2,   0.98717, 2,    7865.19, -120.2,   0.98717, 3,    7865.19,  119.8,   0.98717
"SCN_CN15_9071_CEI068", 13.8, 1,    7867.12,   -0.2,   0.98741, 2,     7867.1, -120.2,   0.98741, 3,     7867.1,  119.8,   0.98741
"SCN_CN15_9070_CEI068", 13.8, 1,    7868.51,   -0.2,   0.98758, 2,     7868.5, -120.2,   0.98758, 3,     7868.5,  119.8,   0.98758
"SCN_CN15_9448_CEI109", 13.8, 1,    7795.57,   -0.4,   0.97843, 2,    7795.55, -120.4,   0.97843, 3,    7795.55,  119.6,   0.97843
...